
     RDKit          3D

 52 54  0  0  0  0  0  0  0  0999 V2000
   -5.9677    0.0764   -1.2996 C   0  0  0  0  0  0  0  0  0  0  0  0
   -4.8185    0.4349   -0.3327 C   0  0  0  0  0  0  0  0  0  0  0  0
   -5.3060    1.5131    0.6514 C   0  0  0  0  0  0  0  0  0  0  0  0
   -4.4249   -0.8393    0.4450 C   0  0  0  0  0  0  0  0  0  0  0  0
   -3.6309    0.9729   -1.1186 C   0  0  0  0  0  0  0  0  0  0  0  0
   -3.8234    1.6608   -2.1586 O   0  0  0  0  0  0  0  0  0  0  0  0
   -2.2835    0.7496   -0.6803 N   0  0  0  0  0  0  0  0  0  0  0  0
   -1.3943   -0.0614   -1.5168 C   0  0  0  0  0  0  0  0  0  0  0  0
   -0.4043   -0.8309   -0.6367 C   0  0  0  0  0  0  0  0  0  0  0  0
    0.1854    0.0324    0.4002 N   0  0  0  0  0  0  0  0  0  0  0  0
    1.1127   -0.5265    1.3477 C   0  0  0  0  0  0  0  0  0  0  0  0
    1.0723   -0.1630    2.5538 O   0  0  0  0  0  0  0  0  0  0  0  0
    2.0822   -1.5632    0.9510 C   0  0  0  0  0  0  0  0  0  0  0  0
    2.2794   -2.7538    1.6173 C   0  0  0  0  0  0  0  0  0  0  0  0
    3.2722   -3.3905    0.9007 C   0  0  0  0  0  0  0  0  0  0  0  0
    3.6615   -2.6102   -0.1260 N   0  0  0  0  0  0  0  0  0  0  0  0
    2.9461   -1.4964   -0.0891 N   0  0  0  0  0  0  0  0  0  0  0  0
    3.1596   -0.3748   -1.0155 C   0  0  0  0  0  0  0  0  0  0  0  0
    4.3873    0.4991   -0.6658 C   0  0  0  0  0  0  0  0  0  0  0  0
    4.5902    0.8222    0.8150 C   0  0  0  0  0  0  0  0  0  0  0  0
    5.9185    0.0755    0.7902 C   0  0  0  0  0  0  0  0  0  0  0  0
    5.7334   -0.2226   -0.6926 C   0  0  0  0  0  0  0  0  0  0  0  0
   -0.2178    1.4411    0.5046 C   0  0  0  0  0  0  0  0  0  0  0  0
   -1.7425    1.5580    0.4217 C   0  0  0  0  0  0  0  0  0  0  0  0
   -5.6292   -0.6763   -2.0445 H   0  0  0  0  0  0  0  0  0  0  0  0
   -6.3239    0.9768   -1.8456 H   0  0  0  0  0  0  0  0  0  0  0  0
   -6.8322   -0.3475   -0.7436 H   0  0  0  0  0  0  0  0  0  0  0  0
   -6.1936    1.1541    1.2160 H   0  0  0  0  0  0  0  0  0  0  0  0
   -4.5136    1.7707    1.3850 H   0  0  0  0  0  0  0  0  0  0  0  0
   -5.5900    2.4396    0.1062 H   0  0  0  0  0  0  0  0  0  0  0  0
   -3.6523   -0.6229    1.2119 H   0  0  0  0  0  0  0  0  0  0  0  0
   -4.0241   -1.6101   -0.2485 H   0  0  0  0  0  0  0  0  0  0  0  0
   -5.3066   -1.2667    0.9697 H   0  0  0  0  0  0  0  0  0  0  0  0
   -1.9818   -0.7871   -2.1216 H   0  0  0  0  0  0  0  0  0  0  0  0
   -0.8390    0.6034   -2.2135 H   0  0  0  0  0  0  0  0  0  0  0  0
   -0.9416   -1.6696   -0.1431 H   0  0  0  0  0  0  0  0  0  0  0  0
    0.3903   -1.2598   -1.2825 H   0  0  0  0  0  0  0  0  0  0  0  0
    1.7634   -3.1171    2.4963 H   0  0  0  0  0  0  0  0  0  0  0  0
    3.6914   -4.3633    1.1190 H   0  0  0  0  0  0  0  0  0  0  0  0
    3.2873   -0.7741   -2.0445 H   0  0  0  0  0  0  0  0  0  0  0  0
    2.2709    0.2845   -1.0421 H   0  0  0  0  0  0  0  0  0  0  0  0
    4.4146    1.4200   -1.2911 H   0  0  0  0  0  0  0  0  0  0  0  0
    4.7273    1.9120    0.9900 H   0  0  0  0  0  0  0  0  0  0  0  0
    3.8607    0.3632    1.5114 H   0  0  0  0  0  0  0  0  0  0  0  0
    5.8987   -0.8463    1.4128 H   0  0  0  0  0  0  0  0  0  0  0  0
    6.7880    0.7398    0.9892 H   0  0  0  0  0  0  0  0  0  0  0  0
    6.4809    0.3104   -1.3205 H   0  0  0  0  0  0  0  0  0  0  0  0
    5.6825   -1.3086   -0.9132 H   0  0  0  0  0  0  0  0  0  0  0  0
    0.2424    2.0104   -0.3319 H   0  0  0  0  0  0  0  0  0  0  0  0
    0.1347    1.8984    1.4547 H   0  0  0  0  0  0  0  0  0  0  0  0
   -2.0151    2.6260    0.2760 H   0  0  0  0  0  0  0  0  0  0  0  0
   -2.1773    1.2118    1.3820 H   0  0  0  0  0  0  0  0  0  0  0  0
  1  2  1  0
  2  3  1  0
  2  4  1  0
  2  5  1  0
  5  6  2  0
  5  7  1  0
  7  8  1  0
  8  9  1  0
  9 10  1  0
 10 11  1  0
 11 12  2  0
 11 13  1  0
 13 14  2  0
 14 15  1  0
 15 16  2  0
 16 17  1  0
 17 18  1  0
 18 19  1  0
 19 20  1  0
 20 21  1  0
 21 22  1  0
 10 23  1  0
 23 24  1  0
 24  7  1  0
 17 13  1  0
 22 19  1  0
  1 25  1  0
  1 26  1  0
  1 27  1  0
  3 28  1  0
  3 29  1  0
  3 30  1  0
  4 31  1  0
  4 32  1  0
  4 33  1  0
  8 34  1  0
  8 35  1  0
  9 36  1  0
  9 37  1  0
 14 38  1  0
 15 39  1  0
 18 40  1  0
 18 41  1  0
 19 42  1  0
 20 43  1  0
 20 44  1  0
 21 45  1  0
 21 46  1  0
 22 47  1  0
 22 48  1  0
 23 49  1  0
 23 50  1  0
 24 51  1  0
 24 52  1  0
M  END
$$$$
