
     RDKit          3D

 53 55  0  0  0  0  0  0  0  0999 V2000
    4.9510    0.9512    1.5827 C   0  0  0  0  0  0  0  0  0  0  0  0
    5.1315   -0.2355    0.6138 C   0  0  0  0  0  0  0  0  0  0  0  0
    4.4168   -1.4788    1.1746 C   0  0  0  0  0  0  0  0  0  0  0  0
    6.6435   -0.5424    0.5047 C   0  0  0  0  0  0  0  0  0  0  0  0
    4.5552    0.0950   -0.7599 C   0  0  0  0  0  0  0  0  0  0  0  0
    5.2281   -0.1471   -1.7991 O   0  0  0  0  0  0  0  0  0  0  0  0
    3.2295    0.6122   -0.9215 N   0  0  0  0  0  0  0  0  0  0  0  0
    2.0990    1.1093   -0.1115 C   0  0  0  0  0  0  0  0  0  0  0  0
    1.1739    1.3565   -1.2602 C   0  0  0  0  0  0  0  0  0  0  0  0
    0.0255    0.4458   -1.2593 N   0  0  0  0  0  0  0  0  0  0  0  0
   -1.0729    0.6351   -0.3504 C   0  0  0  0  0  0  0  0  0  0  0  0
   -1.0523    1.6168    0.4420 O   0  0  0  0  0  0  0  0  0  0  0  0
   -2.2215   -0.3694   -0.2834 C   0  0  0  0  0  0  0  0  0  0  0  0
   -3.3718    0.0450    0.6893 C   0  0  1  0  0  0  0  0  0  0  0  0
   -4.0460    1.3756    0.2534 C   0  0  0  0  0  0  0  0  0  0  0  0
   -5.5574    1.3605    0.5193 C   0  0  0  0  0  0  0  0  0  0  0  0
   -5.8630    0.6429    1.8340 C   0  0  0  0  0  0  0  0  0  0  0  0
   -5.2204   -0.7617    1.8605 C   0  0  0  0  0  0  0  0  0  0  0  0
   -4.3432   -0.9887    0.7695 O   0  0  0  0  0  0  0  0  0  0  0  0
   -1.7026   -1.7955   -0.0275 C   0  0  0  0  0  0  0  0  0  0  0  0
   -2.2110   -2.2295   -1.3976 C   0  0  0  0  0  0  0  0  0  0  0  0
   -2.7331   -0.8221   -1.6634 C   0  0  0  0  0  0  0  0  0  0  0  0
    2.3358    0.8649   -2.0674 C   0  0  0  0  0  0  0  0  0  0  0  0
    3.8913    1.0765    1.8813 H   0  0  0  0  0  0  0  0  0  0  0  0
    5.5254    0.7841    2.5197 H   0  0  0  0  0  0  0  0  0  0  0  0
    5.3101    1.8945    1.1170 H   0  0  0  0  0  0  0  0  0  0  0  0
    4.8224   -1.7466    2.1756 H   0  0  0  0  0  0  0  0  0  0  0  0
    4.5573   -2.3484    0.4956 H   0  0  0  0  0  0  0  0  0  0  0  0
    3.3266   -1.2973    1.2836 H   0  0  0  0  0  0  0  0  0  0  0  0
    7.0715   -0.7848    1.5020 H   0  0  0  0  0  0  0  0  0  0  0  0
    6.8245   -1.4138   -0.1618 H   0  0  0  0  0  0  0  0  0  0  0  0
    7.1907    0.3347    0.0949 H   0  0  0  0  0  0  0  0  0  0  0  0
    1.7344    0.3291    0.5924 H   0  0  0  0  0  0  0  0  0  0  0  0
    2.3661    2.0565    0.4064 H   0  0  0  0  0  0  0  0  0  0  0  0
    0.9100    2.4227   -1.4335 H   0  0  0  0  0  0  0  0  0  0  0  0
    0.0117   -0.3645   -1.9164 H   0  0  0  0  0  0  0  0  0  0  0  0
   -2.9030    0.1934    1.6915 H   0  0  0  0  0  0  0  0  0  0  0  0
   -3.8845    1.5792   -0.8272 H   0  0  0  0  0  0  0  0  0  0  0  0
   -3.5907    2.2165    0.8202 H   0  0  0  0  0  0  0  0  0  0  0  0
   -6.0728    0.8304   -0.3125 H   0  0  0  0  0  0  0  0  0  0  0  0
   -5.9463    2.4008    0.5559 H   0  0  0  0  0  0  0  0  0  0  0  0
   -6.9647    0.5639    1.9671 H   0  0  0  0  0  0  0  0  0  0  0  0
   -5.4618    1.2481    2.6776 H   0  0  0  0  0  0  0  0  0  0  0  0
   -4.6861   -0.9255    2.8235 H   0  0  0  0  0  0  0  0  0  0  0  0
   -6.0272   -1.5238    1.8111 H   0  0  0  0  0  0  0  0  0  0  0  0
   -2.2161   -2.3326    0.7999 H   0  0  0  0  0  0  0  0  0  0  0  0
   -0.5955   -1.8759    0.0493 H   0  0  0  0  0  0  0  0  0  0  0  0
   -3.0275   -2.9811   -1.3293 H   0  0  0  0  0  0  0  0  0  0  0  0
   -1.3882   -2.5177   -2.0874 H   0  0  0  0  0  0  0  0  0  0  0  0
   -3.8407   -0.8084   -1.7651 H   0  0  0  0  0  0  0  0  0  0  0  0
   -2.2320   -0.3340   -2.5272 H   0  0  0  0  0  0  0  0  0  0  0  0
    2.7565    1.6588   -2.7236 H   0  0  0  0  0  0  0  0  0  0  0  0
    2.1438   -0.0750   -2.6303 H   0  0  0  0  0  0  0  0  0  0  0  0
  1  2  1  0
  2  3  1  0
  2  4  1  0
  2  5  1  0
  5  6  2  0
  5  7  1  0
  7  8  1  0
  8  9  1  0
  9 10  1  0
 10 11  1  0
 11 12  2  0
 11 13  1  0
 13 14  1  0
 14 15  1  0
 15 16  1  0
 16 17  1  0
 17 18  1  0
 18 19  1  0
 13 20  1  0
 20 21  1  0
 21 22  1  0
  9 23  1  0
 23  7  1  0
 22 13  1  0
 19 14  1  0
  1 24  1  0
  1 25  1  0
  1 26  1  0
  3 27  1  0
  3 28  1  0
  3 29  1  0
  4 30  1  0
  4 31  1  0
  4 32  1  0
  8 33  1  0
  8 34  1  0
  9 35  1  0
 10 36  1  0
 14 37  1  1
 15 38  1  0
 15 39  1  0
 16 40  1  0
 16 41  1  0
 17 42  1  0
 17 43  1  0
 18 44  1  0
 18 45  1  0
 20 46  1  0
 20 47  1  0
 21 48  1  0
 21 49  1  0
 22 50  1  0
 22 51  1  0
 23 52  1  0
 23 53  1  0
M  END
$$$$
