
     RDKit          3D

 45 46  0  0  0  0  0  0  0  0999 V2000
   -1.2889   -1.7153    2.5508 C   0  0  0  0  0  0  0  0  0  0  0  0
   -2.1185   -1.2370    1.3367 C   0  0  0  0  0  0  0  0  0  0  0  0
   -3.2353   -0.2876    1.8336 C   0  0  0  0  0  0  0  0  0  0  0  0
   -2.7966   -2.4771    0.7079 C   0  0  0  0  0  0  0  0  0  0  0  0
   -1.1767   -0.5739    0.2641 C   0  0  0  0  0  0  0  0  0  0  0  0
   -1.9480   -0.0089   -0.8517 N   0  0  0  0  0  0  0  0  0  0  0  0
   -2.0424   -0.6297   -2.1442 C   0  0  0  0  0  0  0  0  0  0  0  0
   -1.4524   -1.7202   -2.3746 O   0  0  0  0  0  0  0  0  0  0  0  0
   -2.8901   -0.0059   -3.2118 C   0  0  0  0  0  0  0  0  0  0  0  0
   -2.6301   -0.5874   -4.4416 F   0  0  0  0  0  0  0  0  0  0  0  0
   -2.6203    1.3500   -3.2926 F   0  0  0  0  0  0  0  0  0  0  0  0
   -4.2256   -0.1877   -2.8997 F   0  0  0  0  0  0  0  0  0  0  0  0
   -0.2389    0.5009    0.7945 C   0  0  0  0  0  0  0  0  0  0  0  0
   -0.6799    1.3499    1.6178 O   0  0  0  0  0  0  0  0  0  0  0  0
    1.1182    0.6283    0.3086 N   0  0  0  0  0  0  0  0  0  0  0  0
    1.6939   -0.2983   -0.6896 C   0  0  0  0  0  0  0  0  0  0  0  0
    3.1021    0.2012   -1.0845 C   0  0  0  0  0  0  0  0  0  0  0  0
    3.9636    0.2565    0.2019 C   0  0  0  0  0  0  0  0  0  0  0  0
    3.2998    1.1818    1.2598 C   0  0  0  0  0  0  0  0  0  0  0  0
    1.9784    1.7620    0.7054 C   0  0  0  0  0  0  0  0  0  0  0  0
    2.3023    2.5682   -0.5728 C   0  0  0  0  0  0  0  0  0  0  0  0
    2.9609    1.6431   -1.6349 C   0  0  0  0  0  0  0  0  0  0  0  0
   -1.9215   -2.2914    3.2587 H   0  0  0  0  0  0  0  0  0  0  0  0
   -0.4513   -2.3681    2.2203 H   0  0  0  0  0  0  0  0  0  0  0  0
   -0.8632   -0.8562    3.1078 H   0  0  0  0  0  0  0  0  0  0  0  0
   -3.8561    0.0835    0.9916 H   0  0  0  0  0  0  0  0  0  0  0  0
   -2.8271    0.5823    2.3875 H   0  0  0  0  0  0  0  0  0  0  0  0
   -3.9130   -0.8234    2.5329 H   0  0  0  0  0  0  0  0  0  0  0  0
   -2.0371   -3.2049    0.3524 H   0  0  0  0  0  0  0  0  0  0  0  0
   -3.4353   -2.1869   -0.1531 H   0  0  0  0  0  0  0  0  0  0  0  0
   -3.4436   -2.9949    1.4498 H   0  0  0  0  0  0  0  0  0  0  0  0
   -0.5422   -1.3994   -0.1143 H   0  0  0  0  0  0  0  0  0  0  0  0
   -2.4569    0.8901   -0.6972 H   0  0  0  0  0  0  0  0  0  0  0  0
    1.0473   -0.3376   -1.5940 H   0  0  0  0  0  0  0  0  0  0  0  0
    1.7724   -1.3180   -0.2537 H   0  0  0  0  0  0  0  0  0  0  0  0
    3.5629   -0.4706   -1.8431 H   0  0  0  0  0  0  0  0  0  0  0  0
    4.9801    0.6316   -0.0452 H   0  0  0  0  0  0  0  0  0  0  0  0
    4.0800   -0.7690    0.6171 H   0  0  0  0  0  0  0  0  0  0  0  0
    3.9890    2.0123    1.5269 H   0  0  0  0  0  0  0  0  0  0  0  0
    3.0871    0.6054    2.1866 H   0  0  0  0  0  0  0  0  0  0  0  0
    1.5001    2.4190    1.4651 H   0  0  0  0  0  0  0  0  0  0  0  0
    1.3627    3.0008   -0.9819 H   0  0  0  0  0  0  0  0  0  0  0  0
    2.9845    3.4112   -0.3260 H   0  0  0  0  0  0  0  0  0  0  0  0
    3.9634    2.0385   -1.9097 H   0  0  0  0  0  0  0  0  0  0  0  0
    2.3424    1.6325   -2.5614 H   0  0  0  0  0  0  0  0  0  0  0  0
  1  2  1  0
  2  3  1  0
  2  4  1  0
  2  5  1  0
  5  6  1  0
  6  7  1  0
  7  8  2  0
  7  9  1  0
  9 10  1  0
  9 11  1  0
  9 12  1  0
  5 13  1  0
 13 14  2  0
 13 15  1  0
 15 16  1  0
 16 17  1  0
 17 18  1  0
 18 19  1  0
 19 20  1  0
 20 21  1  0
 21 22  1  0
 20 15  1  0
 22 17  1  0
  1 23  1  0
  1 24  1  0
  1 25  1  0
  3 26  1  0
  3 27  1  0
  3 28  1  0
  4 29  1  0
  4 30  1  0
  4 31  1  0
  5 32  1  0
  6 33  1  0
 16 34  1  0
 16 35  1  0
 17 36  1  0
 18 37  1  0
 18 38  1  0
 19 39  1  0
 19 40  1  0
 20 41  1  0
 21 42  1  0
 21 43  1  0
 22 44  1  0
 22 45  1  0
M  END
$$$$
