
     RDKit          3D

 45 46  0  0  0  0  0  0  0  0999 V2000
   -3.2669   -0.3540    1.4532 C   0  0  0  0  0  0  0  0  0  0  0  0
   -2.2230   -0.9770    0.4986 C   0  0  0  0  0  0  0  0  0  0  0  0
   -2.9795   -1.7026   -0.6393 C   0  0  0  0  0  0  0  0  0  0  0  0
   -1.4189   -2.0268    1.2976 C   0  0  0  0  0  0  0  0  0  0  0  0
   -1.2686    0.1528   -0.0381 C   0  0  2  0  0  0  0  0  0  0  0  0
   -2.0282    1.1961   -0.7439 N   0  0  0  0  0  0  0  0  0  0  0  0
   -2.2889    2.4960   -0.1903 C   0  0  0  0  0  0  0  0  0  0  0  0
   -1.8491    2.8069    0.9501 O   0  0  0  0  0  0  0  0  0  0  0  0
   -3.0997    3.4858   -0.9689 C   0  0  0  0  0  0  0  0  0  0  0  0
   -2.4914    3.7239   -2.1872 F   0  0  0  0  0  0  0  0  0  0  0  0
   -4.3660    2.9748   -1.1839 F   0  0  0  0  0  0  0  0  0  0  0  0
   -3.2062    4.6798   -0.2773 F   0  0  0  0  0  0  0  0  0  0  0  0
   -0.1735   -0.3574   -0.9612 C   0  0  0  0  0  0  0  0  0  0  0  0
   -0.4932   -0.7517   -2.1162 O   0  0  0  0  0  0  0  0  0  0  0  0
    1.2259   -0.3196   -0.6058 N   0  0  0  0  0  0  0  0  0  0  0  0
    2.2417   -0.2208   -1.6719 C   0  0  0  0  0  0  0  0  0  0  0  0
    3.6388   -0.0896   -1.0234 C   0  0  0  0  0  0  0  0  0  0  0  0
    3.6197    1.1490   -0.0922 C   0  0  0  0  0  0  0  0  0  0  0  0
    2.5080    1.0045    0.9855 C   0  0  0  0  0  0  0  0  0  0  0  0
    1.7406   -0.3190    0.7784 C   0  0  0  0  0  0  0  0  0  0  0  0
    2.7446   -1.4871    0.9067 C   0  0  0  0  0  0  0  0  0  0  0  0
    3.8745   -1.3445   -0.1497 C   0  0  0  0  0  0  0  0  0  0  0  0
   -2.7661    0.2050    2.2730 H   0  0  0  0  0  0  0  0  0  0  0  0
   -3.9037   -1.1416    1.9117 H   0  0  0  0  0  0  0  0  0  0  0  0
   -3.9364    0.3462    0.9095 H   0  0  0  0  0  0  0  0  0  0  0  0
   -2.2837   -2.2685   -1.2917 H   0  0  0  0  0  0  0  0  0  0  0  0
   -3.5588   -0.9891   -1.2606 H   0  0  0  0  0  0  0  0  0  0  0  0
   -3.6997   -2.4374   -0.2184 H   0  0  0  0  0  0  0  0  0  0  0  0
   -0.9474   -1.5660    2.1907 H   0  0  0  0  0  0  0  0  0  0  0  0
   -0.6262   -2.4872    0.6704 H   0  0  0  0  0  0  0  0  0  0  0  0
   -2.0844   -2.8426    1.6548 H   0  0  0  0  0  0  0  0  0  0  0  0
   -0.7855    0.6219    0.8404 H   0  0  0  0  0  0  0  0  0  0  0  0
   -2.4257    0.9809   -1.6863 H   0  0  0  0  0  0  0  0  0  0  0  0
    2.0367    0.6702   -2.3048 H   0  0  0  0  0  0  0  0  0  0  0  0
    2.2047   -1.1272   -2.3150 H   0  0  0  0  0  0  0  0  0  0  0  0
    4.4291    0.0085   -1.7987 H   0  0  0  0  0  0  0  0  0  0  0  0
    3.4428    2.0659   -0.6960 H   0  0  0  0  0  0  0  0  0  0  0  0
    4.6103    1.2619    0.4002 H   0  0  0  0  0  0  0  0  0  0  0  0
    1.7962    1.8553    0.9086 H   0  0  0  0  0  0  0  0  0  0  0  0
    2.9558    1.0279    2.0031 H   0  0  0  0  0  0  0  0  0  0  0  0
    0.9506   -0.4370    1.5410 H   0  0  0  0  0  0  0  0  0  0  0  0
    2.2066   -2.4481    0.7534 H   0  0  0  0  0  0  0  0  0  0  0  0
    3.1789   -1.5029    1.9303 H   0  0  0  0  0  0  0  0  0  0  0  0
    3.9047   -2.2493   -0.7955 H   0  0  0  0  0  0  0  0  0  0  0  0
    4.8604   -1.2662    0.3589 H   0  0  0  0  0  0  0  0  0  0  0  0
  1  2  1  0
  2  3  1  0
  2  4  1  0
  2  5  1  0
  5  6  1  0
  6  7  1  0
  7  8  2  0
  7  9  1  0
  9 10  1  0
  9 11  1  0
  9 12  1  0
  5 13  1  0
 13 14  2  0
 13 15  1  0
 15 16  1  0
 16 17  1  0
 17 18  1  0
 18 19  1  0
 19 20  1  0
 20 21  1  0
 21 22  1  0
 20 15  1  0
 22 17  1  0
  1 23  1  0
  1 24  1  0
  1 25  1  0
  3 26  1  0
  3 27  1  0
  3 28  1  0
  4 29  1  0
  4 30  1  0
  4 31  1  0
  5 32  1  1
  6 33  1  0
 16 34  1  0
 16 35  1  0
 17 36  1  0
 18 37  1  0
 18 38  1  0
 19 39  1  0
 19 40  1  0
 20 41  1  0
 21 42  1  0
 21 43  1  0
 22 44  1  0
 22 45  1  0
M  END
$$$$
