
     RDKit          3D

 52 54  0  0  0  0  0  0  0  0999 V2000
   -3.9990    1.0458   -1.2041 C   0  0  0  0  0  0  0  0  0  0  0  0
   -3.0473    1.8092   -0.2797 C   0  0  0  0  0  0  0  0  0  0  0  0
   -2.9971    3.2865   -0.6609 C   0  0  0  0  0  0  0  0  0  0  0  0
   -3.4815    1.6957    1.0777 O   0  0  0  0  0  0  0  0  0  0  0  0
   -3.4059    0.5014    1.8066 C   0  0  0  0  0  0  0  0  0  0  0  0
   -4.5970   -0.1368    2.2051 C   0  0  0  0  0  0  0  0  0  0  0  0
   -5.8725    0.4329    1.8892 N   0  0  0  0  0  0  0  0  0  0  0  0
   -4.5357   -1.3506    2.9032 C   0  0  0  0  0  0  0  0  0  0  0  0
   -3.3026   -1.9201    3.2207 C   0  0  0  0  0  0  0  0  0  0  0  0
   -2.1194   -1.2782    2.8547 C   0  0  0  0  0  0  0  0  0  0  0  0
   -2.1578   -0.0661    2.1495 C   0  0  0  0  0  0  0  0  0  0  0  0
   -0.8949    0.6371    1.8536 C   0  0  0  0  0  0  0  0  0  0  0  0
   -0.7558    1.8303    2.2366 O   0  0  0  0  0  0  0  0  0  0  0  0
    0.1605   -0.0017    1.1159 N   0  0  0  0  0  0  0  0  0  0  0  0
   -0.0066   -1.2263    0.3351 C   0  0  0  0  0  0  0  0  0  0  0  0
    1.2708   -1.3126   -0.3991 C   0  0  0  0  0  0  0  0  0  0  0  0
    1.5583   -2.2288   -1.2133 O   0  0  0  0  0  0  0  0  0  0  0  0
    2.1382   -0.2315   -0.0833 N   0  0  0  0  0  0  0  0  0  0  0  0
    3.4790    0.0251   -0.6233 C   0  0  0  0  0  0  0  0  0  0  0  0
    3.4389    0.2185   -2.1640 C   0  0  0  0  0  0  0  0  0  0  0  0
    4.1540   -0.9025   -2.9305 C   0  0  0  0  0  0  0  0  0  0  0  0
    5.6077   -1.0829   -2.4579 C   0  0  0  0  0  0  0  0  0  0  0  0
    5.7874   -0.9554   -0.9291 C   0  0  0  0  0  0  0  0  0  0  0  0
    4.4626   -1.0725   -0.1686 C   0  0  0  0  0  0  0  0  0  0  0  0
    1.4568    0.6336    0.8670 C   0  0  0  0  0  0  0  0  0  0  0  0
   -3.9970   -0.0333   -0.9416 H   0  0  0  0  0  0  0  0  0  0  0  0
   -3.6726    1.1467   -2.2611 H   0  0  0  0  0  0  0  0  0  0  0  0
   -5.0341    1.4364   -1.1040 H   0  0  0  0  0  0  0  0  0  0  0  0
   -2.0269    1.3889   -0.3993 H   0  0  0  0  0  0  0  0  0  0  0  0
   -2.6429    3.4038   -1.7073 H   0  0  0  0  0  0  0  0  0  0  0  0
   -4.0033    3.7474   -0.5622 H   0  0  0  0  0  0  0  0  0  0  0  0
   -2.2925    3.8214    0.0107 H   0  0  0  0  0  0  0  0  0  0  0  0
   -5.9526    1.3405    1.3797 H   0  0  0  0  0  0  0  0  0  0  0  0
   -6.7552   -0.0485    2.1717 H   0  0  0  0  0  0  0  0  0  0  0  0
   -5.4459   -1.8540    3.2043 H   0  0  0  0  0  0  0  0  0  0  0  0
   -3.2637   -2.8533    3.7677 H   0  0  0  0  0  0  0  0  0  0  0  0
   -1.1720   -1.7131    3.1486 H   0  0  0  0  0  0  0  0  0  0  0  0
   -0.1268   -2.1062    0.9996 H   0  0  0  0  0  0  0  0  0  0  0  0
   -0.8577   -1.1264   -0.3720 H   0  0  0  0  0  0  0  0  0  0  0  0
    3.8468    0.9820   -0.1871 H   0  0  0  0  0  0  0  0  0  0  0  0
    2.3900    0.2932   -2.5251 H   0  0  0  0  0  0  0  0  0  0  0  0
    3.9317    1.1820   -2.4223 H   0  0  0  0  0  0  0  0  0  0  0  0
    3.6015   -1.8561   -2.7938 H   0  0  0  0  0  0  0  0  0  0  0  0
    4.1466   -0.6703   -4.0175 H   0  0  0  0  0  0  0  0  0  0  0  0
    6.2491   -0.3254   -2.9594 H   0  0  0  0  0  0  0  0  0  0  0  0
    5.9628   -2.0829   -2.7894 H   0  0  0  0  0  0  0  0  0  0  0  0
    6.4871   -1.7410   -0.5699 H   0  0  0  0  0  0  0  0  0  0  0  0
    6.2478    0.0296   -0.6937 H   0  0  0  0  0  0  0  0  0  0  0  0
    4.0354   -2.0839   -0.3392 H   0  0  0  0  0  0  0  0  0  0  0  0
    4.6525   -0.9686    0.9219 H   0  0  0  0  0  0  0  0  0  0  0  0
    1.3129    1.6421    0.4228 H   0  0  0  0  0  0  0  0  0  0  0  0
    2.0378    0.6990    1.8115 H   0  0  0  0  0  0  0  0  0  0  0  0
  1  2  1  0
  2  3  1  0
  2  4  1  0
  4  5  1  0
  5  6  2  0
  6  7  1  0
  6  8  1  0
  8  9  2  0
  9 10  1  0
 10 11  2  0
 11 12  1  0
 12 13  2  0
 12 14  1  0
 14 15  1  0
 15 16  1  0
 16 17  2  0
 16 18  1  0
 18 19  1  0
 19 20  1  0
 20 21  1  0
 21 22  1  0
 22 23  1  0
 23 24  1  0
 18 25  1  0
 11  5  1  0
 25 14  1  0
 24 19  1  0
  1 26  1  0
  1 27  1  0
  1 28  1  0
  2 29  1  0
  3 30  1  0
  3 31  1  0
  3 32  1  0
  7 33  1  0
  7 34  1  0
  8 35  1  0
  9 36  1  0
 10 37  1  0
 15 38  1  0
 15 39  1  0
 19 40  1  0
 20 41  1  0
 20 42  1  0
 21 43  1  0
 21 44  1  0
 22 45  1  0
 22 46  1  0
 23 47  1  0
 23 48  1  0
 24 49  1  0
 24 50  1  0
 25 51  1  0
 25 52  1  0
M  END
$$$$
