
     RDKit          3D

 50 51  0  0  0  0  0  0  0  0999 V2000
    3.3444   -1.3051    1.2545 C   0  0  0  0  0  0  0  0  0  0  0  0
    2.4869   -1.4024   -0.0289 C   0  0  0  0  0  0  0  0  0  0  0  0
    3.4276   -1.2064   -1.2428 C   0  0  0  0  0  0  0  0  0  0  0  0
    1.8849   -2.8246   -0.0830 C   0  0  0  0  0  0  0  0  0  0  0  0
    1.3476   -0.3185    0.0413 C   0  0  0  0  0  0  0  0  0  0  0  0
    1.9080    1.0383    0.0293 N   0  0  0  0  0  0  0  0  0  0  0  0
    1.9125    1.9001    1.1780 C   0  0  0  0  0  0  0  0  0  0  0  0
    1.4752    1.4905    2.2878 O   0  0  0  0  0  0  0  0  0  0  0  0
    2.4390    3.2966    1.0565 C   0  0  0  0  0  0  0  0  0  0  0  0
    2.3737    3.9494    2.2750 F   0  0  0  0  0  0  0  0  0  0  0  0
    1.6851    3.9937    0.1310 F   0  0  0  0  0  0  0  0  0  0  0  0
    3.7553    3.2578    0.6361 F   0  0  0  0  0  0  0  0  0  0  0  0
    0.2735   -0.4026   -1.0261 C   0  0  0  0  0  0  0  0  0  0  0  0
    0.5328   -0.8438   -2.1762 O   0  0  0  0  0  0  0  0  0  0  0  0
   -1.0106    0.1960   -0.7923 N   0  0  0  0  0  0  0  0  0  0  0  0
   -1.2143    1.5946   -1.2090 C   0  0  0  0  0  0  0  0  0  0  0  0
   -2.5071    2.1275   -0.5546 C   0  0  0  0  0  0  0  0  0  0  0  0
   -3.6850    1.2575   -1.0441 C   0  0  0  0  0  0  0  0  0  0  0  0
   -3.4198   -0.2390   -0.7273 C   0  0  0  0  0  0  0  0  0  0  0  0
   -2.0774   -0.4083    0.0440 C   0  0  0  0  0  0  0  0  0  0  0  0
   -1.8320   -1.8977    0.4011 C   0  0  0  0  0  0  0  0  0  0  0  0
   -1.6553   -2.7197   -0.7954 N   0  0  0  0  0  0  0  0  0  0  0  0
   -2.1793    0.4476    1.3363 C   0  0  0  0  0  0  0  0  0  0  0  0
   -2.3785    1.9469    0.9774 C   0  0  0  0  0  0  0  0  0  0  0  0
    2.7160   -1.4425    2.1610 H   0  0  0  0  0  0  0  0  0  0  0  0
    4.1354   -2.0863    1.2634 H   0  0  0  0  0  0  0  0  0  0  0  0
    3.8454   -0.3160    1.3244 H   0  0  0  0  0  0  0  0  0  0  0  0
    3.9233   -0.2139   -1.2126 H   0  0  0  0  0  0  0  0  0  0  0  0
    2.8934   -1.3062   -2.2069 H   0  0  0  0  0  0  0  0  0  0  0  0
    4.2304   -1.9754   -1.2355 H   0  0  0  0  0  0  0  0  0  0  0  0
    1.2193   -3.0022    0.7877 H   0  0  0  0  0  0  0  0  0  0  0  0
    1.3027   -2.9844   -1.0132 H   0  0  0  0  0  0  0  0  0  0  0  0
    2.6887   -3.5921   -0.0592 H   0  0  0  0  0  0  0  0  0  0  0  0
    0.8210   -0.4805    1.0041 H   0  0  0  0  0  0  0  0  0  0  0  0
    2.2859    1.4139   -0.8700 H   0  0  0  0  0  0  0  0  0  0  0  0
   -1.2884    1.6488   -2.3167 H   0  0  0  0  0  0  0  0  0  0  0  0
   -0.3562    2.2217   -0.8859 H   0  0  0  0  0  0  0  0  0  0  0  0
   -2.6703    3.1958   -0.8143 H   0  0  0  0  0  0  0  0  0  0  0  0
   -3.8207    1.3957   -2.1393 H   0  0  0  0  0  0  0  0  0  0  0  0
   -4.6247    1.5886   -0.5498 H   0  0  0  0  0  0  0  0  0  0  0  0
   -3.3775   -0.7995   -1.6860 H   0  0  0  0  0  0  0  0  0  0  0  0
   -4.2637   -0.6514   -0.1311 H   0  0  0  0  0  0  0  0  0  0  0  0
   -2.6868   -2.2883    0.9986 H   0  0  0  0  0  0  0  0  0  0  0  0
   -0.9327   -1.9848    1.0445 H   0  0  0  0  0  0  0  0  0  0  0  0
   -1.2380   -3.6310   -0.4976 H   0  0  0  0  0  0  0  0  0  0  0  0
   -2.5990   -2.9498   -1.1819 H   0  0  0  0  0  0  0  0  0  0  0  0
   -3.0301    0.0962    1.9612 H   0  0  0  0  0  0  0  0  0  0  0  0
   -1.2540    0.3359    1.9416 H   0  0  0  0  0  0  0  0  0  0  0  0
   -1.5154    2.5417    1.3498 H   0  0  0  0  0  0  0  0  0  0  0  0
   -3.2910    2.3374    1.4786 H   0  0  0  0  0  0  0  0  0  0  0  0
  1  2  1  0
  2  3  1  0
  2  4  1  0
  2  5  1  0
  5  6  1  0
  6  7  1  0
  7  8  2  0
  7  9  1  0
  9 10  1  0
  9 11  1  0
  9 12  1  0
  5 13  1  0
 13 14  2  0
 13 15  1  0
 15 16  1  0
 16 17  1  0
 17 18  1  0
 18 19  1  0
 19 20  1  0
 20 21  1  0
 21 22  1  0
 20 23  1  0
 23 24  1  0
 20 15  1  0
 24 17  1  0
  1 25  1  0
  1 26  1  0
  1 27  1  0
  3 28  1  0
  3 29  1  0
  3 30  1  0
  4 31  1  0
  4 32  1  0
  4 33  1  0
  5 34  1  0
  6 35  1  0
 16 36  1  0
 16 37  1  0
 17 38  1  0
 18 39  1  0
 18 40  1  0
 19 41  1  0
 19 42  1  0
 21 43  1  0
 21 44  1  0
 22 45  1  0
 22 46  1  0
 23 47  1  0
 23 48  1  0
 24 49  1  0
 24 50  1  0
M  END
$$$$
