
     RDKit          3D

 44 45  0  0  0  0  0  0  0  0999 V2000
   -2.7843   -1.2347   -0.0599 C   0  0  0  0  0  0  0  0  0  0  0  0
   -1.6714   -1.1701    1.0112 C   0  0  0  0  0  0  0  0  0  0  0  0
   -2.3209   -1.3170    2.4055 C   0  0  0  0  0  0  0  0  0  0  0  0
   -0.7144   -2.3667    0.8027 C   0  0  0  0  0  0  0  0  0  0  0  0
   -0.8693    0.1764    0.9474 C   0  0  2  0  0  0  0  0  0  0  0  0
   -1.7342    1.3322    1.2295 N   0  0  0  0  0  0  0  0  0  0  0  0
   -1.6778    2.0779    2.4558 C   0  0  0  0  0  0  0  0  0  0  0  0
   -0.8448    1.7739    3.3526 O   0  0  0  0  0  0  0  0  0  0  0  0
   -2.6251    3.2167    2.6769 C   0  0  0  0  0  0  0  0  0  0  0  0
   -3.9237    2.7433    2.6638 F   0  0  0  0  0  0  0  0  0  0  0  0
   -2.4696    4.1490    1.6680 F   0  0  0  0  0  0  0  0  0  0  0  0
   -2.3789    3.8257    3.8950 F   0  0  0  0  0  0  0  0  0  0  0  0
   -0.1678    0.3809   -0.3796 C   0  0  0  0  0  0  0  0  0  0  0  0
   -0.7930    0.9055   -1.3401 O   0  0  0  0  0  0  0  0  0  0  0  0
    1.1853   -0.0713   -0.5639 N   0  0  0  0  0  0  0  0  0  0  0  0
    2.2533    0.1012    0.4322 C   0  0  0  0  0  0  0  0  0  0  0  0
    3.4595    0.1759   -0.5132 C   0  0  0  0  0  0  0  0  0  0  0  0
    2.9113    1.1322   -1.5746 C   0  0  0  0  0  0  0  0  0  0  0  0
    1.9836   -0.0516   -1.7948 C   0  0  0  0  0  0  0  0  0  0  0  0
    1.2533   -0.2443   -3.1347 C   0  0  0  0  0  0  0  0  0  0  0  0
    2.1965   -0.4893   -4.2227 N   0  0  0  0  0  0  0  0  0  0  0  0
    3.1324   -0.9877   -1.4426 C   0  0  0  0  0  0  0  0  0  0  0  0
   -2.3598   -1.1764   -1.0839 H   0  0  0  0  0  0  0  0  0  0  0  0
   -3.3406   -2.1940    0.0169 H   0  0  0  0  0  0  0  0  0  0  0  0
   -3.5169   -0.4114    0.0703 H   0  0  0  0  0  0  0  0  0  0  0  0
   -1.5510   -1.2568    3.2049 H   0  0  0  0  0  0  0  0  0  0  0  0
   -3.0726   -0.5183    2.5816 H   0  0  0  0  0  0  0  0  0  0  0  0
   -2.8411   -2.2950    2.4983 H   0  0  0  0  0  0  0  0  0  0  0  0
   -1.2540   -3.3302    0.9301 H   0  0  0  0  0  0  0  0  0  0  0  0
   -0.2810   -2.3598   -0.2199 H   0  0  0  0  0  0  0  0  0  0  0  0
    0.1184   -2.3366    1.5379 H   0  0  0  0  0  0  0  0  0  0  0  0
   -0.0812    0.1226    1.7280 H   0  0  0  0  0  0  0  0  0  0  0  0
   -2.4553    1.6077    0.5250 H   0  0  0  0  0  0  0  0  0  0  0  0
    2.3059   -0.7730    1.1179 H   0  0  0  0  0  0  0  0  0  0  0  0
    2.1281    1.0466    1.0067 H   0  0  0  0  0  0  0  0  0  0  0  0
    4.4904    0.3053   -0.1214 H   0  0  0  0  0  0  0  0  0  0  0  0
    3.6281    1.3183   -2.4079 H   0  0  0  0  0  0  0  0  0  0  0  0
    2.4217    2.0609   -1.1979 H   0  0  0  0  0  0  0  0  0  0  0  0
    0.5695   -1.1161   -3.0422 H   0  0  0  0  0  0  0  0  0  0  0  0
    0.6479    0.6579   -3.3692 H   0  0  0  0  0  0  0  0  0  0  0  0
    2.6738    0.4121   -4.4532 H   0  0  0  0  0  0  0  0  0  0  0  0
    1.6431   -0.7530   -5.0698 H   0  0  0  0  0  0  0  0  0  0  0  0
    3.8877   -1.1216   -2.2522 H   0  0  0  0  0  0  0  0  0  0  0  0
    2.8388   -1.9475   -0.9546 H   0  0  0  0  0  0  0  0  0  0  0  0
  1  2  1  0
  2  3  1  0
  2  4  1  0
  2  5  1  0
  5  6  1  0
  6  7  1  0
  7  8  2  0
  7  9  1  0
  9 10  1  0
  9 11  1  0
  9 12  1  0
  5 13  1  0
 13 14  2  0
 13 15  1  0
 15 16  1  0
 16 17  1  0
 17 18  1  0
 18 19  1  0
 19 20  1  0
 20 21  1  0
 19 22  1  0
 19 15  1  0
 22 17  1  0
  1 23  1  0
  1 24  1  0
  1 25  1  0
  3 26  1  0
  3 27  1  0
  3 28  1  0
  4 29  1  0
  4 30  1  0
  4 31  1  0
  5 32  1  1
  6 33  1  0
 16 34  1  0
 16 35  1  0
 17 36  1  0
 18 37  1  0
 18 38  1  0
 20 39  1  0
 20 40  1  0
 21 41  1  0
 21 42  1  0
 22 43  1  0
 22 44  1  0
M  END
$$$$
