
     RDKit          3D

 35 35  0  0  0  0  0  0  0  0999 V2000
    1.7722   -1.4280   -0.2905 C   0  0  0  0  0  0  0  0  0  0  0  0
    0.4447   -1.4835    0.5023 C   0  0  0  0  0  0  0  0  0  0  0  0
    0.7382   -2.2512    1.8179 C   0  0  0  0  0  0  0  0  0  0  0  0
   -0.5986   -2.3082   -0.2796 C   0  0  0  0  0  0  0  0  0  0  0  0
   -0.1000   -0.0673    0.8248 C   0  0  0  0  0  0  0  0  0  0  0  0
   -0.4204    0.2274    2.1993 N   0  0  0  0  0  0  0  0  0  0  0  0
   -1.7564    0.3662    2.7127 C   0  0  0  0  0  0  0  0  0  0  0  0
   -1.9162    0.9053    3.8408 O   0  0  0  0  0  0  0  0  0  0  0  0
   -2.9589   -0.2005    2.0061 C   0  0  0  0  0  0  0  0  0  0  0  0
   -4.1154    0.3528    2.5279 F   0  0  0  0  0  0  0  0  0  0  0  0
   -2.9968   -1.5680    2.1989 F   0  0  0  0  0  0  0  0  0  0  0  0
   -2.9214    0.0727    0.6520 F   0  0  0  0  0  0  0  0  0  0  0  0
   -0.2101    0.9525   -0.0761 C   0  0  0  0  0  0  0  0  0  0  0  0
   -0.6129    2.2669    0.3726 C   0  0  0  0  0  0  0  0  0  0  0  0
   -0.9357    3.3189    0.7311 N   0  0  0  0  0  0  0  0  0  0  0  0
    0.0806    0.8479   -1.5157 C   0  0  0  0  0  0  0  0  0  0  0  0
   -0.7357    0.2696   -2.2811 O   0  0  0  0  0  0  0  0  0  0  0  0
    1.3139    1.5044   -2.0771 C   0  0  0  0  0  0  0  0  0  0  0  0
    1.1391    2.9829   -2.3915 C   0  0  0  0  0  0  0  0  0  0  0  0
    1.2359    1.9764   -3.5238 C   0  0  0  0  0  0  0  0  0  0  0  0
    2.4509   -0.6600    0.1390 H   0  0  0  0  0  0  0  0  0  0  0  0
    2.2979   -2.4072   -0.2604 H   0  0  0  0  0  0  0  0  0  0  0  0
    1.6057   -1.2132   -1.3643 H   0  0  0  0  0  0  0  0  0  0  0  0
    1.5020   -1.7172    2.4237 H   0  0  0  0  0  0  0  0  0  0  0  0
    1.1244   -3.2732    1.6094 H   0  0  0  0  0  0  0  0  0  0  0  0
   -0.1840   -2.3654    2.4278 H   0  0  0  0  0  0  0  0  0  0  0  0
   -0.7977   -1.8900   -1.2812 H   0  0  0  0  0  0  0  0  0  0  0  0
   -0.2402   -3.3499   -0.4301 H   0  0  0  0  0  0  0  0  0  0  0  0
   -1.5590   -2.3524    0.2730 H   0  0  0  0  0  0  0  0  0  0  0  0
    0.3752    0.4551    2.8379 H   0  0  0  0  0  0  0  0  0  0  0  0
    2.3196    1.2257   -1.6980 H   0  0  0  0  0  0  0  0  0  0  0  0
    0.1183    3.4010   -2.2563 H   0  0  0  0  0  0  0  0  0  0  0  0
    2.0546    3.5973   -2.2609 H   0  0  0  0  0  0  0  0  0  0  0  0
    2.2119    1.9945   -4.0540 H   0  0  0  0  0  0  0  0  0  0  0  0
    0.2741    1.8177   -4.0566 H   0  0  0  0  0  0  0  0  0  0  0  0
  1  2  1  0
  2  3  1  0
  2  4  1  0
  2  5  1  0
  5  6  1  0
  6  7  1  0
  7  8  2  0
  7  9  1  0
  9 10  1  0
  9 11  1  0
  9 12  1  0
  5 13  2  3
 13 14  1  0
 14 15  3  0
 13 16  1  0
 16 17  2  0
 16 18  1  0
 18 19  1  0
 19 20  1  0
 20 18  1  0
  1 21  1  0
  1 22  1  0
  1 23  1  0
  3 24  1  0
  3 25  1  0
  3 26  1  0
  4 27  1  0
  4 28  1  0
  4 29  1  0
  6 30  1  0
 18 31  1  0
 19 32  1  0
 19 33  1  0
 20 34  1  0
 20 35  1  0
M  END
$$$$
