
     RDKit          3D

 65 67  0  0  0  0  0  0  0  0999 V2000
    4.0159    3.1868   -0.8302 C   0  0  0  0  0  0  0  0  0  0  0  0
    4.5052    2.2568    0.2969 C   0  0  0  0  0  0  0  0  0  0  0  0
    5.8463    1.6119   -0.1041 C   0  0  0  0  0  0  0  0  0  0  0  0
    4.7275    3.1027    1.5709 C   0  0  0  0  0  0  0  0  0  0  0  0
    3.4703    1.1655    0.5429 C   0  0  0  0  0  0  0  0  0  0  0  0
    2.9303    1.0526    1.6788 O   0  0  0  0  0  0  0  0  0  0  0  0
    3.1078    0.2529   -0.5103 N   0  0  0  0  0  0  0  0  0  0  0  0
    2.1900   -0.8795   -0.3144 C   0  0  0  0  0  0  0  0  0  0  0  0
    1.1305   -0.8565   -1.4032 C   0  0  0  0  0  0  0  0  0  0  0  0
    1.4851   -0.6785   -2.6009 O   0  0  0  0  0  0  0  0  0  0  0  0
   -0.2650   -1.0643   -1.1128 N   0  0  0  0  0  0  0  0  0  0  0  0
   -1.2371   -1.3655   -2.1474 C   0  0  0  0  0  0  0  0  0  0  0  0
   -2.5311   -1.6674   -1.4078 C   0  0  0  0  0  0  0  0  0  0  0  0
   -2.3928   -0.9919   -0.0236 C   0  0  1  0  0  0  0  0  0  0  0  0
   -2.9540    0.4538   -0.0438 C   0  0  0  0  0  0  0  0  0  0  0  0
   -4.4167    0.4232   -0.0475 N   0  0  0  0  0  0  0  0  0  0  0  0
   -5.1585    1.3885   -0.8179 C   0  0  0  0  0  0  0  0  0  0  0  0
   -4.7698    1.6830   -1.9803 O   0  0  0  0  0  0  0  0  0  0  0  0
   -6.3570    2.0597   -0.2823 C   0  0  0  0  0  0  0  0  0  0  0  0
   -7.1719    2.8315   -1.0350 N   0  0  0  0  0  0  0  0  0  0  0  0
   -8.0825    3.2480   -0.1339 C   0  0  0  0  0  0  0  0  0  0  0  0
   -7.8229    2.7603    1.0889 N   0  0  0  0  0  0  0  0  0  0  0  0
   -6.7370    2.0150    1.0098 N   0  0  0  0  0  0  0  0  0  0  0  0
   -5.0695   -0.4640    0.9149 C   0  0  0  0  0  0  0  0  0  0  0  0
   -4.4056   -1.8412    0.8709 C   0  0  0  0  0  0  0  0  0  0  0  0
   -2.9968   -1.7543    1.0181 O   0  0  0  0  0  0  0  0  0  0  0  0
   -0.8705   -0.9554    0.2057 C   0  0  0  0  0  0  0  0  0  0  0  0
    2.9703   -2.2404   -0.2424 C   0  0  0  0  0  0  0  0  0  0  0  0
    3.9978   -2.1853    0.9109 C   0  0  0  0  0  0  0  0  0  0  0  0
    1.9886   -3.3974    0.0506 C   0  0  0  0  0  0  0  0  0  0  0  0
    3.7265   -2.5541   -1.5541 C   0  0  0  0  0  0  0  0  0  0  0  0
    3.0278    3.6247   -0.5707 H   0  0  0  0  0  0  0  0  0  0  0  0
    3.9133    2.6399   -1.7910 H   0  0  0  0  0  0  0  0  0  0  0  0
    4.7352    4.0187   -0.9910 H   0  0  0  0  0  0  0  0  0  0  0  0
    5.7544    1.0436   -1.0534 H   0  0  0  0  0  0  0  0  0  0  0  0
    6.6267    2.3897   -0.2501 H   0  0  0  0  0  0  0  0  0  0  0  0
    6.1930    0.9132    0.6879 H   0  0  0  0  0  0  0  0  0  0  0  0
    3.7807    3.5920    1.8875 H   0  0  0  0  0  0  0  0  0  0  0  0
    5.4828    3.8980    1.3896 H   0  0  0  0  0  0  0  0  0  0  0  0
    5.0922    2.4661    2.4062 H   0  0  0  0  0  0  0  0  0  0  0  0
    3.5582    0.3654   -1.4452 H   0  0  0  0  0  0  0  0  0  0  0  0
    1.6783   -0.7534    0.6604 H   0  0  0  0  0  0  0  0  0  0  0  0
   -0.9116   -2.2458   -2.7438 H   0  0  0  0  0  0  0  0  0  0  0  0
   -1.3629   -0.4820   -2.8104 H   0  0  0  0  0  0  0  0  0  0  0  0
   -2.6156   -2.7695   -1.2795 H   0  0  0  0  0  0  0  0  0  0  0  0
   -3.4138   -1.3048   -1.9789 H   0  0  0  0  0  0  0  0  0  0  0  0
   -2.6253    1.0008    0.8670 H   0  0  0  0  0  0  0  0  0  0  0  0
   -2.5605    1.0049   -0.9265 H   0  0  0  0  0  0  0  0  0  0  0  0
   -8.9153    3.8981   -0.3671 H   0  0  0  0  0  0  0  0  0  0  0  0
   -8.3678    2.9320    1.9624 H   0  0  0  0  0  0  0  0  0  0  0  0
   -4.9745   -0.0353    1.9360 H   0  0  0  0  0  0  0  0  0  0  0  0
   -6.1473   -0.5859    0.6707 H   0  0  0  0  0  0  0  0  0  0  0  0
   -4.8060   -2.4491    1.7094 H   0  0  0  0  0  0  0  0  0  0  0  0
   -4.6835   -2.3740   -0.0641 H   0  0  0  0  0  0  0  0  0  0  0  0
   -0.5493   -1.8207    0.8241 H   0  0  0  0  0  0  0  0  0  0  0  0
   -0.5444   -0.0170    0.7053 H   0  0  0  0  0  0  0  0  0  0  0  0
    3.4979   -1.9343    1.8712 H   0  0  0  0  0  0  0  0  0  0  0  0
    4.7797   -1.4222    0.7122 H   0  0  0  0  0  0  0  0  0  0  0  0
    4.5085   -3.1650    1.0324 H   0  0  0  0  0  0  0  0  0  0  0  0
    1.4491   -3.2215    1.0056 H   0  0  0  0  0  0  0  0  0  0  0  0
    1.2405   -3.5044   -0.7633 H   0  0  0  0  0  0  0  0  0  0  0  0
    2.5325   -4.3627    0.1378 H   0  0  0  0  0  0  0  0  0  0  0  0
    4.4475   -1.7493   -1.8067 H   0  0  0  0  0  0  0  0  0  0  0  0
    4.3024   -3.4994   -1.4528 H   0  0  0  0  0  0  0  0  0  0  0  0
    3.0242   -2.6870   -2.4025 H   0  0  0  0  0  0  0  0  0  0  0  0
  1  2  1  0
  2  3  1  0
  2  4  1  0
  2  5  1  0
  5  6  2  0
  5  7  1  0
  7  8  1  0
  8  9  1  0
  9 10  2  0
  9 11  1  0
 11 12  1  0
 12 13  1  0
 13 14  1  0
 14 15  1  0
 15 16  1  0
 16 17  1  0
 17 18  2  0
 17 19  1  0
 19 20  1  0
 20 21  2  0
 21 22  1  0
 22 23  1  0
 16 24  1  0
 24 25  1  0
 25 26  1  0
 14 27  1  0
  8 28  1  0
 28 29  1  0
 28 30  1  0
 28 31  1  0
 27 11  1  0
 14 26  1  1
 23 19  2  0
  1 32  1  0
  1 33  1  0
  1 34  1  0
  3 35  1  0
  3 36  1  0
  3 37  1  0
  4 38  1  0
  4 39  1  0
  4 40  1  0
  7 41  1  0
  8 42  1  0
 12 43  1  0
 12 44  1  0
 13 45  1  0
 13 46  1  0
 15 47  1  0
 15 48  1  0
 21 49  1  0
 22 50  1  0
 24 51  1  0
 24 52  1  0
 25 53  1  0
 25 54  1  0
 27 55  1  0
 27 56  1  0
 29 57  1  0
 29 58  1  0
 29 59  1  0
 30 60  1  0
 30 61  1  0
 30 62  1  0
 31 63  1  0
 31 64  1  0
 31 65  1  0
M  END
$$$$
