
     RDKit          3D

 46 47  0  0  0  0  0  0  0  0999 V2000
   -1.9238   -1.9236    0.6808 C   0  0  0  0  0  0  0  0  0  0  0  0
   -2.8065   -1.2026   -0.3634 C   0  0  0  0  0  0  0  0  0  0  0  0
   -3.0436   -2.1694   -1.5476 C   0  0  0  0  0  0  0  0  0  0  0  0
   -4.1813   -0.8938    0.2732 C   0  0  0  0  0  0  0  0  0  0  0  0
   -2.1551    0.1299   -0.8859 C   0  0  0  0  0  0  0  0  0  0  0  0
   -2.0556    1.1591    0.1589 N   0  0  0  0  0  0  0  0  0  0  0  0
   -1.9659    2.5570   -0.1552 C   0  0  0  0  0  0  0  0  0  0  0  0
   -1.8936    2.9354   -1.3563 O   0  0  0  0  0  0  0  0  0  0  0  0
   -1.9534    3.5712    0.9476 C   0  0  0  0  0  0  0  0  0  0  0  0
   -0.8360    3.3823    1.7387 F   0  0  0  0  0  0  0  0  0  0  0  0
   -3.0891    3.4235    1.7219 F   0  0  0  0  0  0  0  0  0  0  0  0
   -1.9265    4.8538    0.4283 F   0  0  0  0  0  0  0  0  0  0  0  0
   -0.8076   -0.0832   -1.5424 C   0  0  0  0  0  0  0  0  0  0  0  0
   -0.7587   -0.3400   -2.7749 O   0  0  0  0  0  0  0  0  0  0  0  0
    0.4138   -0.0235   -0.8003 N   0  0  0  0  0  0  0  0  0  0  0  0
    0.8868    0.3290    0.5550 C   0  0  0  0  0  0  0  0  0  0  0  0
    2.3418    0.0662    0.2909 C   0  0  0  0  0  0  0  0  0  0  0  0
    2.9328   -1.1290    1.0598 C   0  0  0  0  0  0  0  0  0  0  0  0
    4.4016   -1.3736    0.6407 C   0  0  0  0  0  0  0  0  0  0  0  0
    4.9103   -0.3716   -0.2274 O   0  0  0  0  0  0  0  0  0  0  0  0
    4.7339    0.9091    0.3490 C   0  0  0  0  0  0  0  0  0  0  0  0
    3.2480    1.3148    0.3613 C   0  0  0  0  0  0  0  0  0  0  0  0
    1.8382   -0.2777   -1.0871 C   0  0  0  0  0  0  0  0  0  0  0  0
   -2.4072   -2.8695    1.0081 H   0  0  0  0  0  0  0  0  0  0  0  0
   -1.7710   -1.3033    1.5865 H   0  0  0  0  0  0  0  0  0  0  0  0
   -0.9335   -2.1866    0.2534 H   0  0  0  0  0  0  0  0  0  0  0  0
   -3.5864   -3.0798   -1.2121 H   0  0  0  0  0  0  0  0  0  0  0  0
   -3.6489   -1.6802   -2.3410 H   0  0  0  0  0  0  0  0  0  0  0  0
   -2.0818   -2.5013   -1.9924 H   0  0  0  0  0  0  0  0  0  0  0  0
   -4.8368   -0.3621   -0.4500 H   0  0  0  0  0  0  0  0  0  0  0  0
   -4.6936   -1.8314    0.5801 H   0  0  0  0  0  0  0  0  0  0  0  0
   -4.0760   -0.2606    1.1788 H   0  0  0  0  0  0  0  0  0  0  0  0
   -2.8398    0.5251   -1.6713 H   0  0  0  0  0  0  0  0  0  0  0  0
   -2.0264    0.8870    1.1659 H   0  0  0  0  0  0  0  0  0  0  0  0
    0.4482   -0.3462    1.3207 H   0  0  0  0  0  0  0  0  0  0  0  0
    0.6673    1.3955    0.7795 H   0  0  0  0  0  0  0  0  0  0  0  0
    2.9034   -0.8965    2.1469 H   0  0  0  0  0  0  0  0  0  0  0  0
    2.3284   -2.0505    0.9034 H   0  0  0  0  0  0  0  0  0  0  0  0
    4.4593   -2.3455    0.1063 H   0  0  0  0  0  0  0  0  0  0  0  0
    5.0504   -1.4673    1.5402 H   0  0  0  0  0  0  0  0  0  0  0  0
    5.1556    0.9423    1.3805 H   0  0  0  0  0  0  0  0  0  0  0  0
    5.3063    1.6486   -0.2501 H   0  0  0  0  0  0  0  0  0  0  0  0
    3.0428    1.8660    1.3051 H   0  0  0  0  0  0  0  0  0  0  0  0
    3.0351    2.0137   -0.4774 H   0  0  0  0  0  0  0  0  0  0  0  0
    1.9926   -1.3429   -1.3710 H   0  0  0  0  0  0  0  0  0  0  0  0
    2.2017    0.4021   -1.8893 H   0  0  0  0  0  0  0  0  0  0  0  0
  1  2  1  0
  2  3  1  0
  2  4  1  0
  2  5  1  0
  5  6  1  0
  6  7  1  0
  7  8  2  0
  7  9  1  0
  9 10  1  0
  9 11  1  0
  9 12  1  0
  5 13  1  0
 13 14  2  0
 13 15  1  0
 15 16  1  0
 16 17  1  0
 17 18  1  0
 18 19  1  0
 19 20  1  0
 20 21  1  0
 21 22  1  0
 17 23  1  0
 23 15  1  0
 22 17  1  0
  1 24  1  0
  1 25  1  0
  1 26  1  0
  3 27  1  0
  3 28  1  0
  3 29  1  0
  4 30  1  0
  4 31  1  0
  4 32  1  0
  5 33  1  0
  6 34  1  0
 16 35  1  0
 16 36  1  0
 18 37  1  0
 18 38  1  0
 19 39  1  0
 19 40  1  0
 21 41  1  0
 21 42  1  0
 22 43  1  0
 22 44  1  0
 23 45  1  0
 23 46  1  0
M  END
$$$$
